Version 4.1
SHEET 1 1168 680
WIRE 352 48 288 48
WIRE 608 48 432 48
WIRE 608 144 608 48
WIRE 288 176 288 48
WIRE 608 272 608 224
WIRE 288 384 288 240
FLAG 288 384 0
FLAG 608 272 0
SYMBOL cap 272 176 R0
SYMATTR InstName C1
SYMATTR Value 150m
SYMATTR SpiceLine Rser=6464m
SYMBOL res 448 32 R90
WINDOW 0 0 56 VBottom 2
WINDOW 3 32 56 VTop 2
SYMATTR InstName R1
SYMATTR Value 220
SYMBOL voltage 608 128 R0
WINDOW 123 0 0 Left 0
WINDOW 39 0 0 Left 0
SYMATTR InstName V2
SYMATTR Value PWL(0.0005 0 0.001 12)
TEXT -200 400 Left 2 !.tran 200
